Version 4
SHEET 1 880 680
WIRE 112 112 -16 112
WIRE 176 112 112 112
WIRE 192 112 176 112
WIRE 288 112 272 112
WIRE 336 112 288 112
WIRE 352 112 336 112
WIRE 448 112 432 112
WIRE 480 112 448 112
WIRE 608 112 560 112
WIRE -16 176 -16 112
WIRE 112 192 112 112
WIRE 176 192 176 112
WIRE 192 192 176 192
WIRE 288 192 288 112
WIRE 288 192 256 192
WIRE 336 192 336 112
WIRE 352 192 336 192
WIRE 448 192 448 112
WIRE 448 192 416 192
WIRE -16 336 -16 256
WIRE 112 336 112 272
WIRE 112 336 -16 336
WIRE 608 336 608 112
WIRE 608 336 112 336
WIRE 112 368 112 336
FLAG 112 368 0
SYMBOL res 96 176 R0
SYMATTR InstName R1
SYMATTR Value 3
SYMBOL res 288 96 R90
WINDOW 0 0 56 VBottom 2
WINDOW 3 32 56 VTop 2
SYMATTR InstName R2
SYMATTR Value 2
SYMBOL res 448 96 R90
WINDOW 0 0 56 VBottom 2
WINDOW 3 32 56 VTop 2
SYMATTR InstName R3
SYMATTR Value 10
SYMBOL cap 256 176 R90
WINDOW 0 0 32 VBottom 2
WINDOW 3 32 32 VTop 2
SYMATTR InstName C1
SYMATTR Value 0.125
SYMBOL cap 416 176 R90
WINDOW 0 0 32 VBottom 2
WINDOW 3 32 32 VTop 2
SYMATTR InstName C2
SYMATTR Value 0.1
SYMBOL res 576 96 R90
WINDOW 0 0 56 VBottom 2
WINDOW 3 32 56 VTop 2
SYMATTR InstName R4
SYMATTR Value 3
SYMBOL current -16 256 R180
WINDOW 0 24 80 Left 2
WINDOW 3 24 0 Left 2
WINDOW 123 24 -28 Left 2
SYMATTR InstName I1
SYMATTR Value ""
SYMATTR Value2 AC 1 0
TEXT -32 48 Left 2 !.ac dec 1000 0.001 100000
